@<TRIPOS>MOLECULE
*****
 18 18 0 0 0
SMALL
GASTEIGER

@<TRIPOS>ATOM
      1 C          -3.2851    0.9629    0.2617 C.3     1  LIG1       -0.0531
      2 C          -2.9103   -0.4700   -0.1453 C.3     1  LIG1       -0.0531
      3 C          -2.2868    1.9652   -0.3360 C.3     1  LIG1       -0.0531
      4 H          -3.2742    1.0493    1.3707 H       1  LIG1        0.0265
      5 H          -4.3107    1.1972   -0.0951 H       1  LIG1        0.0265
      6 C          -1.4801   -0.8007    0.3064 C.3     1  LIG1       -0.0531
      7 H          -2.9812   -0.5687   -1.2508 H       1  LIG1        0.0265
      8 H          -3.6232   -1.1881    0.3143 H       1  LIG1        0.0265
      9 C          -0.8623    1.6375    0.1328 C.3     1  LIG1       -0.0531
     10 H          -2.5575    2.9959   -0.0218 H       1  LIG1        0.0265
     11 H          -2.3317    1.9174   -1.4468 H       1  LIG1        0.0265
     12 C          -0.4830    0.2086   -0.2825 C.3     1  LIG1       -0.0531
     13 H          -1.4258   -0.7662    1.4168 H       1  LIG1        0.0265
     14 H          -1.2117   -1.8275   -0.0231 H       1  LIG1        0.0265
     15 H          -0.8061    1.7305    1.2402 H       1  LIG1        0.0265
     16 H          -0.1452    2.3598   -0.3128 H       1  LIG1        0.0265
     17 H          -0.4902    0.1336   -1.3923 H       1  LIG1        0.0265
     18 H           0.5423   -0.0262    0.0751 H       1  LIG1        0.0265
@<TRIPOS>BOND
     1     2     1    1
     2     3     1    1
     3     1     4    1
     4     1     5    1
     5     2     6    1
     6     2     7    1
     7     2     8    1
     8     3     9    1
     9     3    10    1
    10     3    11    1
    11    12     6    1
    12     6    13    1
    13     6    14    1
    14     9    12    1
    15     9    15    1
    16     9    16    1
    17    12    17    1
    18    12    18    1
