@<TRIPOS>MOLECULE
MOL2  : Made in Gabedit. mol2 file
        571        608          1
 SMALL
 NO_CHARGES
 ****
 ****
@<TRIPOS>ATOM
      1 P          -5.1712   -6.9941   15.4128 P       1  DA3         1.1659
      2 O          -5.4394   -6.7743   13.9734 O2      1  DA3        -0.7761
      3 O          -4.0885   -7.9529   15.7295 O2      1  DA3        -0.7761
      4 O          -4.8716   -5.5926   16.1220 OS      1  DA3        -0.4954
      5 C          -5.9716   -4.7136   16.4231 CT      1  DA3        -0.0069
      6 H          -6.8151   -5.3004   16.7868 H1      1  DA3         0.0754
      7 H          -5.6634   -4.0016   17.1875 H1      1  DA3         0.0754
      8 C          -6.3862   -3.9529   15.1733 CT      1  DA3         0.1629
      9 H          -7.2296   -3.3022   15.4049 H1      1  DA3         0.1176
     10 O          -5.6244   -3.0593   15.0127 OS      1  DA3        -0.3691
     11 C          -5.1026   -2.9865   13.6942 CT      1  DA3         0.0431
     12 H          -5.3000   -2.0527   13.1686 H2      1  DA3         0.1838
     13 C          -6.6166   -4.8033   13.9219 CT      1  DA3         0.0713
     14 H          -6.8466   -5.8604   13.7814 H1      1  DA3         0.0985
     15 C          -5.1361   -4.5632   13.2269 CT      1  DA3        -0.0854
     16 H          -4.6925   -5.5336   13.0096 HC      1  DA3         0.0718
     17 H          -5.1099   -3.9422   12.3309 HC      1  DA3         0.0718
     18 O          -7.7625   -4.3413   13.2228 OH      1  DA3        -0.6549
     19 N          -3.5842   -3.0357   13.7449 N*      1  DA3        -0.0268
     20 C          -2.7201   -4.0839   13.9211 CK      1  DA3         0.1607
     21 H          -3.1053   -5.0837   14.0534 H5      1  DA3         0.1877
     22 N          -1.4655   -3.7522   13.8455 NB      1  DA3        -0.6175
     23 C          -1.4942   -2.3714   13.6472 CB      1  DA3         0.0725
     24 C          -0.4809   -1.4191   13.4872 CA      1  DA3         0.6897
     25 N           0.8243   -1.7192   13.5023 N2      1  DA3        -0.9123
     26 H           1.1223   -2.6749   13.6337 H       1  DA3         0.4167
     27 H           1.5117   -0.9888   13.3811 H       1  DA3         0.4167
     28 N          -0.8551   -0.1446   13.3105 NC      1  DA3        -0.7624
     29 C          -2.1526    0.1474   13.2968 CQ      1  DA3         0.5716
     30 H          -2.4752    1.1672   13.1554 H5      1  DA3         0.0598
     31 N          -3.1909   -0.6635   13.4145 NC      1  DA3        -0.7417
     32 C          -2.7862   -1.9365   13.6090 CB      1  DA3         0.3800
     33 P           4.8262    6.8078   11.3986 P       2  DT3         1.1659
     34 O           4.6229    8.2571   11.1752 O2      2  DT3        -0.7761
     35 O           4.8219    6.3870   12.8177 O2      2  DT3        -0.7761
     36 O           3.6086    6.0526   10.6864 OS      2  DT3        -0.4954
     37 C           2.4189    6.7962   10.3634 CT      2  DT3        -0.0069
     38 H           2.6972    7.7806    9.9878 H1      2  DT3         0.0754
     39 H           1.8573    6.2583    9.6000 H1      2  DT3         0.0754
     40 C           1.5504    6.9530   11.6018 CT      2  DT3         0.1629
     41 H           0.6607    7.5299   11.3527 H1      2  DT3         0.1176
     42 O           0.9542    5.9438   11.7720 OS      2  DT3        -0.3691
     43 C           1.0410    5.4469   13.0992 CT      2  DT3         0.0680
     44 H           0.0963    5.4209   13.6410 H2      2  DT3         0.1804
     45 N           1.5890    4.0175   13.0762 N*      2  DT3        -0.0239
     46 C           2.9173    3.7305   12.9101 CM      2  DT3        -0.2209
     47 H           3.6317    4.5291   12.7859 H4      2  DT3         0.2607
     48 C           3.3646    2.4682   12.9492 CM      2  DT3         0.0025
     49 C           4.8173    2.1412   12.7669 CT      2  DT3        -0.2269
     50 H           5.4004    2.6340   13.5451 HC      2  DT3         0.0770
     51 H           4.9600    1.0627   12.8352 HC      2  DT3         0.0770
     52 H           5.1484    2.4896   11.7890 HC      2  DT3         0.0770
     53 C           2.4570    1.3712   13.1692 C       2  DT3         0.5194
     54 O           2.7743    0.1842   13.2210 O       2  DT3        -0.5563
     55 N           1.0164    1.7121   13.2353 NA      2  DT3        -0.4340
     56 H           0.3237    0.8869   13.4010 H       2  DT3         0.3420
     57 C           0.6421    3.0392   13.2377 C       2  DT3         0.5677
     58 O          -0.5297    3.3764   13.2893 O       2  DT3        -0.5881
     59 C           2.2648    7.4686   12.8546 CT      2  DT3         0.0713
     60 H           3.1871    8.0337   12.9956 H1      2  DT3         0.0985
     61 C           2.5140    6.0019   13.5744 CT      2  DT3        -0.0854
     62 H           3.5735    5.9035   13.8055 HC      2  DT3         0.0718
     63 H           1.9263    5.7880   14.4667 HC      2  DT3         0.0718
     64 O           1.4532    8.4079   13.5414 OH      2  DT3        -0.6549
     65 P          -8.3571   -2.7561   12.0722 P       3  DC3         1.1659
     66 O          -9.7152   -2.2471   12.3671 O2      3  DC3        -0.7761
     67 O          -8.0320   -2.8745   10.6323 O2      3  DC3        -0.7761
     68 O          -7.2793   -1.8034   12.7736 OS      3  DC3        -0.4954
     69 C          -7.6521   -0.4515   13.1015 CT      3  DC3        -0.0069
     70 H          -8.6712   -0.4396   13.4877 H1      3  DC3         0.0754
     71 H          -6.9687   -0.0655   13.8570 H1      3  DC3         0.0754
     72 C          -7.5693    0.4251   11.8620 CT      3  DC3         0.1629
     73 H          -8.0527    1.3549   12.1619 H1      3  DC3         0.1176
     74 O          -6.4331    0.7125   11.6805 OS      3  DC3        -0.3691
     75 C          -5.9956    0.4893   10.3481 CT      3  DC3        -0.0116
     76 H          -5.7076    1.3875    9.8039 H2      3  DC3         0.1963
     77 N          -4.8135   -0.4165   10.3960 N*      3  DC3        -0.0339
     78 C          -4.9614   -1.7561   10.5831 CM      3  DC3        -0.0183
     79 H          -5.9479   -2.1786   10.7006 H4      3  DC3         0.2293
     80 C          -3.8807   -2.5805   10.6263 CM      3  DC3        -0.5222
     81 H          -4.0187   -3.6507   10.7779 HA      3  DC3         0.1863
     82 C          -2.5962   -1.9738   10.4647 CA      3  DC3         0.8439
     83 N          -1.5047   -2.7141   10.4960 N2      3  DC3        -0.9773
     84 H          -1.6167   -3.7082   10.6358 H       3  DC3         0.4314
     85 H          -0.5962   -2.2879   10.3828 H       3  DC3         0.4314
     86 N          -2.4469   -0.6439   10.2788 NC      3  DC3        -0.7748
     87 C          -3.5529    0.1462   10.2417 C       3  DC3         0.7959
     88 O          -3.4886    1.3728   10.0748 O       3  DC3        -0.6548
     89 C          -8.2786   -0.1134   10.6173 CT      3  DC3         0.0713
     90 H          -9.0822   -0.8373   10.4837 H1      3  DC3         0.0985
     91 C          -6.9496   -0.7663    9.8829 CT      3  DC3        -0.0854
     92 H          -7.1571   -1.8113    9.6541 HC      3  DC3         0.0718
     93 H          -6.5878   -0.2638    8.9865 HC      3  DC3         0.0718
     94 O          -8.9566    0.9322    9.9373 OH      3  DC3        -0.6549
     95 P           7.9832    2.3832    8.0288 P       4  DG3         1.1659
     96 O           8.7653    3.6297    7.8768 O2      4  DG3        -0.7761
     97 O           7.8139    1.9168    9.4239 O2      4  DG3        -0.7761
     98 O           6.5545    2.5418    7.3253 OS      4  DG3        -0.4954
     99 C           6.0969    3.8584    6.9650 CT      4  DG3        -0.0069
    100 H           6.9303    4.4351    6.5629 H1      4  DG3         0.0754
    101 H           5.3143    3.7720    6.2121 H1      4  DG3         0.0754
    102 C           5.5345    4.5662    8.1874 CT      4  DG3         0.1629
    103 H           5.4065    5.5990    7.8611 H1      4  DG3         0.1176
    104 O           4.4353    4.1658    8.3813 OS      4  DG3        -0.3691
    105 C           4.2025    3.7688    9.7243 CT      4  DG3         0.0358
    106 H           3.4580    4.3601   10.2554 H2      4  DG3         0.1746
    107 N           3.7397    2.3526    9.7125 N*      4  DG3         0.0577
    108 C           4.4755    1.1949    9.5599 CK      4  DG3         0.0736
    109 H           5.5462    1.2502    9.4252 H5      4  DG3         0.1997
    110 N           3.7596    0.0988    9.5947 NB      4  DG3        -0.5725
    111 C           2.4599    0.5555    9.7825 CB      4  DG3         0.1991
    112 C           1.2403   -0.1621    9.9010 C       4  DG3         0.4918
    113 O           1.0556   -1.3776    9.8626 O       4  DG3        -0.5699
    114 N           0.1540    0.7027   10.0809 NA      4  DG3        -0.5053
    115 H          -0.7516    0.2897   10.1733 H       4  DG3         0.3520
    116 C           0.2352    2.0791   10.1426 CA      4  DG3         0.7432
    117 N          -0.9246    2.7280   10.3221 N2      4  DG3        -0.9230
    118 H          -1.8445    2.3177   10.4045 H       4  DG3         0.4235
    119 H          -0.8767    3.7357   10.3596 H       4  DG3         0.4235
    120 N           1.3780    2.7492   10.0326 NC      4  DG3        -0.6636
    121 C           2.4437    1.9237    9.8574 CB      4  DG3         0.1814
    122 C           6.4260    4.5550    9.4318 CT      4  DG3         0.0713
    123 H           7.4983    4.4153    9.5669 H1      4  DG3         0.0985
    124 C           5.6996    3.2841   10.2005 CT      4  DG3        -0.0854
    125 H           6.4621    2.5462   10.4474 HC      4  DG3         0.0718
    126 H           5.1184    3.5179   11.0913 HC      4  DG3         0.0718
    127 O           6.3960    5.8176   10.0811 OH      4  DG3        -0.6549
    128 P          -8.2721    2.7551    8.6982 P       5  DT3         1.1659
    129 O          -8.9785    4.0249    8.9811 O2      5  DT3        -0.7761
    130 O          -8.0050    2.4935    7.2661 O2      5  DT3        -0.7761
    131 O          -6.8428    2.8685    9.4083 OS      5  DT3        -0.4954
    132 C          -6.3111    4.1736    9.7027 CT      5  DT3        -0.0069
    133 H          -7.1118    4.8184   10.0642 H1      5  DT3         0.0754
    134 H          -5.5411    4.0816   10.4685 H1      5  DT3         0.0754
    135 C          -5.6974    4.7806    8.4508 CT      5  DT3         0.1629
    136 H          -5.3119    5.7737    8.6782 H1      5  DT3         0.1176
    137 O          -4.6241    4.3058    8.2911 OS      5  DT3        -0.3691
    138 C          -4.4043    3.8227    6.9742 CT      5  DT3         0.0680
    139 H          -3.6221    4.3411    6.4210 H2      5  DT3         0.1804
    140 N          -4.0146    2.3432    7.0298 N*      5  DT3        -0.0239
    141 C          -4.9254    1.3384    7.2179 CM      5  DT3        -0.2209
    142 H          -5.9717    1.5723    7.3369 H4      5  DT3         0.2607
    143 C          -4.5515    0.0520    7.2071 CM      5  DT3         0.0025
    144 C          -5.5400   -1.0574    7.4137 CT      5  DT3        -0.2269
    145 H          -6.3010   -1.0149    6.6343 HC      5  DT3         0.0770
    146 H          -5.0261   -2.0176    7.3666 HC      5  DT3         0.0770
    147 H          -6.0123   -0.9465    8.3894 HC      5  DT3         0.0770
    148 C          -3.1741   -0.3135    6.9952 C       5  DT3         0.5194
    149 O          -2.7387   -1.4632    6.9687 O       5  DT3        -0.5563
    150 N          -2.2037    0.8028    6.9047 NA      5  DT3        -0.4340
    151 H          -1.1595    0.5337    6.7450 H       5  DT3         0.3420
    152 C          -2.6747    2.0983    6.8737 C       5  DT3         0.5677
    153 O          -1.9202    3.0548    6.8012 O       5  DT3        -0.5881
    154 C          -6.5783    4.7546    7.1981 CT      5  DT3         0.0713
    155 H          -7.6570    4.6718    7.0589 H1      5  DT3         0.0985
    156 C          -5.9241    3.4028    6.5080 CT      5  DT3        -0.0854
    157 H          -6.7268    2.6995    6.2922 HC      5  DT3         0.0718
    158 H          -5.3220    3.5527    5.6122 HC      5  DT3         0.0718
    159 O          -6.4678    5.9757    6.4844 OH      5  DT3        -0.6549
    160 P           7.8767   -2.6921    4.6861 P       6  DA3         1.1659
    161 O           9.1990   -2.0480    4.5170 O2      6  DA3        -0.7761
    162 O           7.4357   -2.8565    6.0898 O2      6  DA3        -0.7761
    163 O           6.8058   -1.7418    3.9741 OS      6  DA3        -0.4954
    164 C           7.1815   -0.3915    3.6442 CT      6  DA3        -0.0069
    165 H           8.2040   -0.3819    3.2668 H1      6  DA3         0.0754
    166 H           6.5056   -0.0069    2.8817 H1      6  DA3         0.0754
    167 C           7.0903    0.4901    4.8799 CT      6  DA3         0.1629
    168 H           7.3918    1.5065    4.6265 H1      6  DA3         0.1176
    169 O           5.9522    0.7737    5.0506 OS      6  DA3        -0.3691
    170 C           5.5035    0.5513    6.3792 CT      6  DA3         0.0431
    171 H           5.1254    1.4339    6.8944 H2      6  DA3         0.1838
    172 C           7.7903   -0.0438    6.1318 CT      6  DA3         0.0713
    173 H           8.5961   -0.7652    6.2745 H1      6  DA3         0.0985
    174 C           6.4575   -0.7008    6.8562 CT      6  DA3        -0.0854
    175 H           6.6669   -1.7437    7.0891 HC      6  DA3         0.0718
    176 H           6.0854   -0.1962    7.7484 HC      6  DA3         0.0718
    177 O           8.4599    1.0124    6.8037 OH      6  DA3        -0.6549
    178 N           4.2991   -0.3758    6.3607 N*      6  DA3        -0.0268
    179 C           4.2074   -1.7341    6.2096 CK      6  DA3         0.1607
    180 H           5.1022   -2.3232    6.0758 H5      6  DA3         0.1877
    181 N           2.9963   -2.1958    6.3092 NB      6  DA3        -0.6175
    182 C           2.2159   -1.0546    6.4977 CB      6  DA3         0.0725
    183 C           0.8395   -0.8702    6.6727 CA      6  DA3         0.6897
    184 N          -0.0449   -1.8759    6.6869 N2      6  DA3        -0.9123
    185 H           0.2696   -2.8280    6.5681 H       6  DA3         0.4167
    186 H          -1.0278   -1.6821    6.8176 H       6  DA3         0.4167
    187 N           0.4014    0.3859    6.8330 NC      6  DA3        -0.7624
    188 C           1.2843    1.3805    6.8176 CQ      6  DA3         0.5716
    189 H           0.9525    2.3992    6.9454 H5      6  DA3         0.0598
    190 N           2.5990    1.3263    6.6835 NC      6  DA3        -0.7417
    191 C           3.0113    0.0532    6.5060 CB      6  DA3         0.3800
    192 P          -5.1798    6.9918    5.3522 P       7  DC3         1.1659
    193 O          -5.1170    8.4424    5.6394 O2      7  DC3        -0.7761
    194 O          -5.2104    6.6393    3.9142 O2      7  DC3        -0.7761
    195 O          -3.9433    6.2569    6.0536 OS      7  DC3        -0.4954
    196 C          -2.7700    7.0252    6.3815 CT      7  DC3        -0.0069
    197 H          -3.0702    7.9991    6.7677 H1      7  DC3         0.0754
    198 H          -2.1935    6.4925    7.1370 H1      7  DC3         0.0754
    199 C          -1.9100    7.2143    5.1420 CT      7  DC3         0.1629
    200 H          -1.1725    7.9587    5.4420 H1      7  DC3         0.1176
    201 O          -1.2891    6.2203    4.9605 OS      7  DC3        -0.3691
    202 C          -1.3678    5.7355    3.6281 CT      7  DC3        -0.0116
    203 H          -0.4246    5.7358    3.0839 H2      7  DC3         0.1963
    204 N          -1.8689    4.3331    3.6760 N*      7  DC3        -0.0339
    205 C          -3.1896    4.0645    3.8631 CM      7  DC3        -0.0183
    206 H          -3.8935    4.8746    3.9806 H4      7  DC3         0.2293
    207 C          -3.6442    2.7834    3.9063 CM      7  DC3        -0.5222
    208 H          -4.7054    2.5876    4.0579 HA      7  DC3         0.1863
    209 C          -2.6738    1.7459    3.7447 CA      7  DC3         0.8439
    210 N          -3.0451    0.4803    3.7760 N2      7  DC3        -0.9773
    211 H          -4.0258    0.2831    3.9158 H       7  DC3         0.4314
    212 H          -2.3616   -0.2543    3.6628 H       7  DC3         0.4314
    213 N          -1.3620    2.0103    3.5588 NC      7  DC3        -0.7748
    214 C          -0.9478    3.3049    3.5217 C       7  DC3         0.7959
    215 O           0.2398    3.6186    3.3548 O       7  DC3        -0.6548
    216 C          -2.6396    7.7250    3.8973 CT      7  DC3         0.0713
    217 H          -3.5745    8.2688    3.7637 H1      7  DC3         0.0985
    218 C          -2.8550    6.2600    3.1629 CT      7  DC3        -0.0854
    219 H          -3.9134    6.1381    2.9341 HC      7  DC3         0.0718
    220 H          -2.2659    6.0692    2.2665 HC      7  DC3         0.0718
    221 O          -1.8513    8.6901    3.2173 OH      7  DC3        -0.6549
    222 P           4.7086   -6.9951    1.3088 P       8  DG3         1.1659
    223 O           6.1345   -7.3636    1.1688 O2      8  DG3        -0.7761
    224 O           4.1962   -6.9937    2.6980 O2      8  DG3        -0.7761
    225 O           4.4229   -5.5864    0.6053 OS      8  DG3        -0.4954
    226 C           5.5366   -4.7482    0.2450 CT      8  DG3        -0.0069
    227 H           6.3405   -5.3654   -0.1571 H1      8  DG3         0.0754
    228 H           5.2151   -4.0295   -0.5079 H1      8  DG3         0.0754
    229 C           6.0386   -3.9963    1.4674 CT      8  DG3         0.1629
    230 H           6.9828   -3.5587    1.1411 H1      8  DG3         0.1176
    231 O           5.3213   -3.0721    1.6613 OS      8  DG3        -0.3691
    232 C           4.8722   -2.9718    3.0043 CT      8  DG3         0.0358
    233 H           5.2076   -2.0823    3.5354 H2      8  DG3         0.1746
    234 N           3.3822   -2.9641    2.9925 N*      8  DG3         0.0577
    235 C           2.5050   -4.0187    2.8399 CK      8  DG3         0.0736
    236 H           2.8849   -5.0212    2.7052 H5      8  DG3         0.1997
    237 N           1.2424   -3.6721    2.8747 NB      8  DG3        -0.5725
    238 C           1.2800   -2.2950    3.0625 CB      8  DG3         0.1991
    239 C           0.2239   -1.3531    3.1810 C       8  DG3         0.4918
    240 O          -0.9899   -1.5488    3.1426 O       8  DG3        -0.5699
    241 N           0.7152   -0.0544    3.3609 NA      8  DG3        -0.5053
    242 H           0.0452    0.6815    3.4533 H       8  DG3         0.3520
    243 C           2.0505    0.2890    3.4226 CA      8  DG3         0.7432
    244 N           2.3138    1.5916    3.6021 N2      8  DG3        -0.9230
    245 H           1.6420    2.3421    3.6845 H       8  DG3         0.4235
    246 H           3.2879    1.8541    3.6396 H       8  DG3         0.4235
    247 N           3.0379   -0.5942    3.3126 NC      8  DG3        -0.6636
    248 C           2.5777   -1.8613    3.1374 CB      8  DG3         0.1814
    249 C           6.3005   -4.8486    2.7118 CT      8  DG3         0.0713
    250 H           6.4953   -5.9122    2.8469 H1      8  DG3         0.0985
    251 C           4.8684   -4.5455    3.4805 CT      8  DG3        -0.0854
    252 H           4.3989   -5.4970    3.7274 HC      8  DG3         0.0718
    253 H           4.9133   -3.9206    4.3713 HC      8  DG3         0.0718
    254 O           7.4934   -4.4341    3.3611 OH      8  DG3        -0.6549
    255 P           0.0154    8.5379    1.9728 P       9  DA3         1.1659
    256 O           1.0179    9.6023    2.2049 O2      9  DA3        -0.7761
    257 O          -0.1998    8.1801    0.5524 O2      9  DA3        -0.7761
    258 O           0.5876    7.2239    2.6820 OS      9  DA3        -0.4954
    259 C           1.9937    7.1496    2.9831 CT      9  DA3        -0.0069
    260 H           2.3380    8.1177    3.3468 H1      9  DA3         0.0754
    261 H           2.1576    6.3913    3.7475 H1      9  DA3         0.0754
    262 C           2.7737    6.7724    1.7333 CT      9  DA3         0.1629
    263 H           3.8382    6.7342    1.9649 H1      9  DA3         0.1176
    264 O           2.6744    5.6023    1.5727 OS      9  DA3        -0.3691
    265 C           2.2925    5.2394    0.2542 CT      9  DA3         0.0431
    266 H           2.9966    4.5951   -0.2714 H2      9  DA3         0.1838
    267 C           2.4659    7.5979    0.4819 CT      9  DA3         0.0713
    268 H           2.0376    8.5914    0.3414 H1      9  DA3         0.0985
    269 C           1.4019    6.5409   -0.2131 CT      9  DA3        -0.0854
    270 H           0.4763    7.0717   -0.4304 HC      9  DA3         0.0718
    271 H           1.7421    6.0207   -1.1091 HC      9  DA3         0.0718
    272 O           3.6666    7.8894   -0.2172 OH      9  DA3        -0.6549
    273 N           1.0292    4.3956    0.3049 N*      9  DA3        -0.0268
    274 C          -0.2835    4.7448    0.4811 CK      9  DA3         0.1607
    275 H          -0.5523    5.7820    0.6134 H5      9  DA3         0.1877
    276 N          -1.1106    3.7447    0.4055 NB      9  DA3        -0.6175
    277 C          -0.2834    2.6387    0.2072 CB      9  DA3         0.0725
    278 C          -0.5530    1.2745    0.0472 CA      9  DA3         0.6897
    279 N          -1.7890    0.7588    0.0623 N2      9  DA3        -0.9123
    280 H          -2.5876    1.3624    0.1937 H       9  DA3         0.4167
    281 H          -1.9227   -0.2353   -0.0589 H       9  DA3         0.4167
    282 N           0.4932    0.4561   -0.1295 NC      9  DA3        -0.7624
    283 C           1.7182    0.9740   -0.1432 CQ      9  DA3         0.5716
    284 H           2.5741    0.3326   -0.2846 H5      9  DA3         0.0598
    285 N           2.0904    2.2377   -0.0255 NC      9  DA3        -0.7417
    286 C           1.0202    3.0372    0.1690 CB      9  DA3         0.3800
    287 P          -0.0791   -8.5042   -2.0414 P      10  DT3         1.1659
    288 O           0.9298   -9.5642   -2.2648 O2     10  DT3        -0.7761
    289 O          -0.3206   -8.1595   -0.6223 O2     10  DT3        -0.7761
    290 O           0.4713   -7.1813   -2.7536 OS     10  DT3        -0.4954
    291 C           1.8715   -7.0934   -3.0766 CT     10  DT3        -0.0069
    292 H           2.2182   -8.0558   -3.4522 H1     10  DT3         0.0754
    293 H           2.0150   -6.3290   -3.8400 H1     10  DT3         0.0754
    294 C           2.6689   -6.7153   -1.8382 CT     10  DT3         0.1629
    295 H           3.7282   -6.6664   -2.0873 H1     10  DT3         0.1176
    296 O           2.5662   -5.5476   -1.6680 OS     10  DT3        -0.3691
    297 C           2.2064   -5.1941   -0.3408 CT     10  DT3         0.0680
    298 H           2.9594   -4.6231    0.2010 H2     10  DT3         0.1804
    299 N           0.9288   -4.3509   -0.3638 N*     10  DT3        -0.0239
    300 C          -0.3184   -4.8907   -0.5299 CM     10  DT3        -0.2209
    301 H          -0.4344   -5.9560   -0.6541 H4     10  DT3         0.2607
    302 C          -1.4169   -4.1247   -0.4908 CM     10  DT3         0.0025
    303 C          -2.7884   -4.7046   -0.6731 CT     10  DT3        -0.2269
    304 H          -2.9757   -5.4446    0.1051 HC     10  DT3         0.0770
    305 H          -3.5323   -3.9106   -0.6048 HC     10  DT3         0.0770
    306 H          -2.8549   -5.1805   -1.6510 HC     10  DT3         0.0770
    307 C          -1.3175   -2.7044   -0.2708 C      10  DT3         0.5194
    308 O          -2.2665   -1.9240   -0.2190 O      10  DT3        -0.5563
    309 N           0.0523   -2.1430   -0.2047 NA     10  DT3        -0.4340
    310 H           0.1352   -1.0689   -0.0390 H      10  DT3         0.3420
    311 C           1.1292   -3.0043   -0.2023 C      10  DT3         0.5677
    312 O           2.2782   -2.5962   -0.1507 O      10  DT3        -0.5881
    313 C           2.3882   -7.5504   -0.5854 CT     10  DT3         0.0713
    314 H           1.9672   -8.5468   -0.4444 H1     10  DT3         0.0985
    315 C           1.3318   -6.5028    0.1344 CT     10  DT3        -0.0854
    316 H           0.4130   -7.0396    0.3655 HC     10  DT3         0.0718
    317 H           1.6851   -5.9868    1.0267 HC     10  DT3         0.0718
    318 O           3.5949   -7.8417    0.1014 OH     10  DT3        -0.6549
    319 P           5.0728    6.9466   -1.3678 P      11  DC3         1.1659
    320 O           6.4734    7.3233   -1.0729 O2     11  DC3        -0.7761
    321 O           4.7396    6.8536   -2.8077 O2     11  DC3        -0.7761
    322 O           4.7511    5.5446   -0.6664 OS     11  DC3        -0.4954
    323 C           5.8412    4.6623   -0.3385 CT     11  DC3        -0.0069
    324 H           6.6767    5.2459    0.0477 H1     11  DC3         0.0754
    325 H           5.5102    3.9506    0.4170 H1     11  DC3         0.0754
    326 C           6.2841    3.9013   -1.5780 CT     11  DC3         0.1629
    327 H           7.2184    3.4267   -1.2780 H1     11  DC3         0.1176
    328 O           5.5275    3.0063   -1.7595 OS     11  DC3        -0.3691
    329 C           5.0419    2.9330   -3.0919 CT     11  DC3        -0.0116
    330 H           5.3306    2.0351   -3.6361 H2     11  DC3         0.1963
    331 N           3.5535    2.9814   -3.0440 N*     11  DC3        -0.0339
    332 C           2.8939    4.1568   -2.8569 CM     11  DC3        -0.0183
    333 H           3.4501    5.0746   -2.7394 H4     11  DC3         0.2293
    334 C           1.5353    4.1980   -2.8137 CM     11  DC3        -0.5222
    335 H           1.0245    5.1485   -2.6621 HA     11  DC3         0.1863
    336 C           0.8440    2.9569   -2.9753 CA     11  DC3         0.8439
    337 N          -0.4744    2.9235   -2.9440 N2     11  DC3        -0.9773
    338 H          -0.9621    3.7970   -2.8042 H      11  DC3         0.4314
    339 H          -0.9650    2.0481   -3.0572 H      11  DC3         0.4314
    340 N           1.4968    1.7887   -3.1612 NC     11  DC3        -0.7748
    341 C           2.8561    1.7901   -3.1983 C      11  DC3         0.7959
    342 O           3.5178    0.7553   -3.3652 O      11  DC3        -0.6548
    343 C           6.5474    4.7521   -2.8227 CT     11  DC3         0.0713
    344 H           6.7794    5.8085   -2.9563 H1     11  DC3         0.0985
    345 C           5.0867    4.5094   -3.5571 CT     11  DC3        -0.0854
    346 H           4.6471    5.4798   -3.7859 HC     11  DC3         0.0718
    347 H           5.0851    3.8901   -4.4535 HC     11  DC3         0.0718
    348 O           7.7073    4.2966   -3.5027 OH     11  DC3        -0.6549
    349 P          -5.2217   -6.7442   -5.4112 P      12  DG3         1.1659
    350 O          -5.1321   -8.2130   -5.5632 O2     12  DG3        -0.7761
    351 O          -5.3556   -6.2665   -4.0161 O2     12  DG3        -0.7761
    352 O          -3.9678   -6.0415   -6.1147 OS     12  DG3        -0.4954
    353 C          -2.8293   -6.8457   -6.4750 CT     12  DG3        -0.0069
    354 H          -3.1712   -7.7998   -6.8771 H1     12  DG3         0.0754
    355 H          -2.2433   -6.3198   -7.2279 H1     12  DG3         0.0754
    356 C          -1.9599   -7.0938   -5.2526 CT     12  DG3         0.1629
    357 H          -1.2546   -7.8590   -5.5789 H1     12  DG3         0.1176
    358 O          -1.2993   -6.1283   -5.0587 OS     12  DG3        -0.3691
    359 C          -1.3410   -5.6700   -3.7157 CT     12  DG3         0.0358
    360 H          -0.3915   -5.7175   -3.1846 H2     12  DG3         0.1746
    361 N          -1.7892   -4.2491   -3.7275 N*     12  DG3         0.0577
    362 C          -3.0614   -3.7362   -3.8801 CK     12  DG3         0.0736
    363 H          -3.8998   -4.4044   -4.0148 H5     12  DG3         0.1997
    364 N          -3.1174   -2.4281   -3.8453 NB     12  DG3        -0.5725
    365 C          -1.7947   -2.0430   -3.6575 CB     12  DG3         0.1991
    366 C          -1.2207   -0.7494   -3.5390 C      12  DG3         0.4918
    367 O          -1.7781    0.3464   -3.5774 O      12  DG3        -0.5699
    368 N           0.1659   -0.8202   -3.3591 NA     12  DG3        -0.5053
    369 H           0.6618    0.0427   -3.2667 H      12  DG3         0.3520
    370 C           0.9011   -1.9867   -3.2974 CA     12  DG3         0.7432
    371 N           2.2219   -1.8391   -3.1179 N2     12  DG3        -0.9230
    372 H           2.7311   -0.9701   -3.0355 H      12  DG3         0.4235
    373 H           2.7695   -2.6864   -3.0804 H      12  DG3         0.4235
    374 N           0.3620   -3.1968   -3.4074 NC     12  DG3        -0.6636
    375 C          -0.9851   -3.1460   -3.5826 CB     12  DG3         0.1814
    376 C          -2.6913   -7.6037   -4.0082 CT     12  DG3         0.0713
    377 H          -3.6445   -8.1143   -3.8731 H1     12  DG3         0.0985
    378 C          -2.8405   -6.1475   -3.2395 CT     12  DG3        -0.0854
    379 H          -3.8901   -5.9913   -2.9926 HC     12  DG3         0.0718
    380 H          -2.2318   -5.9992   -2.3487 HC     12  DG3         0.0718
    381 O          -1.9320   -8.6128   -3.3589 OH     12  DG3        -0.6549
    382 P           8.2119    2.4159   -4.7418 P      13  DT3         1.1659
    383 O           9.5255    1.7947   -4.4589 O2     13  DT3        -0.7761
    384 O           7.8424    2.4731   -6.1739 O2     13  DT3        -0.7761
    385 O           7.1158    1.4917   -4.0317 OS     13  DT3        -0.4954
    386 C           7.4431    0.1210   -3.7373 CT     13  DT3        -0.0069
    387 H           8.4695    0.0629   -3.3758 H1     13  DT3         0.0754
    388 H           6.7636   -0.2524   -2.9715 H1     13  DT3         0.0754
    389 C           7.2976   -0.7298   -4.9892 CT     13  DT3         0.1629
    390 H           7.5622   -1.7617   -4.7618 H1     13  DT3         0.1176
    391 O           6.1484   -0.9685   -5.1489 OS     13  DT3        -0.3691
    392 C           5.6885   -0.7037   -6.4658 CT     13  DT3         0.0680
    393 H           5.3543   -1.5805   -7.0190 H2     13  DT3         0.1804
    394 N           4.5104    0.2725   -6.4102 N*     13  DT3        -0.0239
    395 C           4.6661    1.6197   -6.2221 CM     13  DT3        -0.2209
    396 H           5.6530    2.0385   -6.1031 H4     13  DT3         0.2607
    397 C           3.6132    2.4480   -6.2329 CM     13  DT3         0.0025
    398 C           3.7711    3.9255   -6.0263 CT     13  DT3        -0.2269
    399 H           4.4146    4.3339   -6.8057 HC     13  DT3         0.0770
    400 H           2.7943    4.4071   -6.0734 HC     13  DT3         0.0770
    401 H           4.2197    4.1102   -5.0506 HC     13  DT3         0.0770
    402 C           2.2805    1.9433   -6.4448 C      13  DT3         0.5194
    403 O           1.2571    2.6247   -6.4713 O      13  DT3        -0.5563
    404 N           2.1412    0.4708   -6.5353 NA     13  DT3        -0.4340
    405 H           1.1355    0.0818   -6.6950 H      13  DT3         0.3420
    406 C           3.2783   -0.3084   -6.5663 C      13  DT3         0.5677
    407 O           3.2216   -1.5254   -6.6388 O      13  DT3        -0.5881
    408 C           7.9986   -0.1958   -6.2419 CT     13  DT3         0.0713
    409 H           8.8275    0.4994   -6.3811 H1     13  DT3         0.0985
    410 C           6.6798    0.5224   -6.9320 CT     13  DT3        -0.0854
    411 H           6.9231    1.5616   -7.1478 HC     13  DT3         0.0718
    412 H           6.2775    0.0501   -7.8278 HC     13  DT3         0.0718
    413 O           8.6196   -1.2531   -6.9556 OH     13  DT3        -0.6549
    414 P          -8.0896   -2.5555   -8.7539 P      14  DA3         1.1659
    415 O          -8.7911   -3.8509   -8.9019 O2     14  DA3        -0.7761
    416 O          -7.8385   -2.1361   -7.3565 O2     14  DA3        -0.7761
    417 O          -6.6657   -2.7049   -9.4659 OS     14  DA3        -0.4954
    418 C          -6.1851   -4.0215   -9.7958 CT     14  DA3        -0.0069
    419 H          -7.0109   -4.6245  -10.1732 H1     14  DA3         0.0754
    420 H          -5.4116   -3.9407  -10.5583 H1     14  DA3         0.0754
    421 C          -5.5977   -4.6852   -8.5601 CT     14  DA3         0.1629
    422 H          -5.2513   -5.6871   -8.8135 H1     14  DA3         0.1176
    423 O          -4.5073   -4.2533   -8.3894 OS     14  DA3        -0.3691
    424 C          -4.2719   -3.8113   -7.0608 CT     14  DA3         0.0431
    425 H          -3.4507   -4.3088   -6.5456 H2     14  DA3         0.1838
    426 C          -6.4777   -4.6585   -7.3082 CT     14  DA3         0.0713
    427 H          -7.5529   -4.5410   -7.1655 H1     14  DA3         0.0985
    428 C          -5.7765   -3.3485   -6.5838 CT     14  DA3        -0.0854
    429 H          -6.5538   -2.6224   -6.3509 HC     14  DA3         0.0718
    430 H          -5.1802   -3.5422   -5.6916 HC     14  DA3         0.0718
    431 O          -6.4073   -5.9071   -6.6363 OH     14  DA3        -0.6549
    432 N          -3.8323   -2.3563   -7.0793 N*     14  DA3        -0.0268
    433 C          -4.5484   -1.1985   -7.2304 CK     14  DA3         0.1607
    434 H          -5.6189   -1.2403   -7.3642 H5     14  DA3         0.1877
    435 N          -3.8325   -0.1181   -7.1308 NB     14  DA3        -0.6175
    436 C          -2.5337   -0.5917   -6.9423 CB     14  DA3         0.0725
    437 C          -1.3071    0.0596   -6.7673 CA     14  DA3         0.6897
    438 N          -1.1735    1.3922   -6.7531 N2     14  DA3        -0.9123
    439 H          -1.9833    1.9832   -6.8719 H      14  DA3         0.4167
    440 H          -0.2615    1.8068   -6.6224 H      14  DA3         0.4167
    441 N          -0.2197   -0.7068   -6.6070 NC     14  DA3        -0.7624
    442 C          -0.3586   -2.0294   -6.6224 CQ     14  DA3         0.5716
    443 H           0.5042   -2.6645   -6.4946 H5     14  DA3         0.0598
    444 N          -1.4591   -2.7506   -6.7565 NC     14  DA3        -0.7417
    445 C          -2.5355   -1.9554   -6.9340 CB     14  DA3         0.3800
    446 P           8.1343   -2.7365   -8.0873 P      15  DG3         1.1659
    447 O           8.9307   -3.9607   -7.8514 O2     15  DG3        -0.7761
    448 O           7.9504   -2.3744   -9.5112 O2     15  DG3        -0.7761
    449 O           6.7034   -2.8886   -7.3871 OS     15  DG3        -0.4954
    450 C           6.2257   -4.2057   -7.0557 CT     15  DG3        -0.0069
    451 H           7.0501   -4.8038   -6.6666 H1     15  DG3         0.0754
    452 H           5.4444   -4.1239   -6.3008 H1     15  DG3         0.0754
    453 C           5.6525   -4.8778   -8.2932 CT     15  DG3         0.1629
    454 H           5.5087   -5.9154   -7.9896 H1     15  DG3         0.1176
    455 O           4.5596   -4.4564   -8.4780 OS     15  DG3        -0.3691
    456 C           4.3330   -4.0266   -9.8119 CT     15  DG3         0.0358
    457 H           3.5797   -4.5946  -10.3556 H2     15  DG3         0.1746
    458 N           3.8920   -2.6040   -9.7689 N*     15  DG3         0.0577
    459 C           4.6454   -1.4614   -9.5910 CK     15  DG3         0.0736
    460 H           5.7151   -1.5360   -9.4578 H5     15  DG3         0.1997
    461 N           3.9464   -0.3539   -9.6015 NB     15  DG3        -0.5725
    462 C           2.6398   -0.7865   -9.7990 CB     15  DG3         0.1991
    463 C           1.4313   -0.0479   -9.9014 C      15  DG3         0.4918
    464 O           1.2652    1.1692   -9.8362 O      15  DG3        -0.5699
    465 N           0.3319   -0.8917  -10.0999 NA     15  DG3        -0.5053
    466 H          -0.5672   -0.4631  -10.1831 H      15  DG3         0.3520
    467 C           0.3921   -2.2675  -10.1920 CA     15  DG3         0.7432
    468 N          -0.7775   -2.8945  -10.3854 N2     15  DG3        -0.9230
    469 H          -1.6910   -2.4685  -10.4584 H      15  DG3         0.4235
    470 H          -0.7450   -3.9018  -10.4449 H      15  DG3         0.4235
    471 N           1.5245   -2.9573  -10.0970 NC     15  DG3        -0.6636
    472 C           2.6028   -2.1523   -9.9039 CB     15  DG3         0.1814
    473 C           6.5443   -4.8529   -9.5372 CT     15  DG3         0.0713
    474 H           7.6186   -4.7267   -9.6695 H1     15  DG3         0.0985
    475 C           5.8375   -3.5545  -10.2776 CT     15  DG3        -0.0854
    476 H           6.6112   -2.8231  -10.5085 HC     15  DG3         0.0718
    477 H           5.2528   -3.7597  -11.1732 HC     15  DG3         0.0718
    478 O           6.4950   -6.1003  -10.2141 OH     15  DG3        -0.6549
    479 P          -8.0983    2.7320  -12.1327 P      16  DC3         1.1659
    480 O          -9.4417    2.1363  -12.3083 O2     16  DC3        -0.7761
    481 O          -7.6853    2.9411  -10.7260 O2     16  DC3        -0.7761
    482 O          -7.0259    1.7752  -12.8368 OS     16  DC3        -0.4954
    483 C          -7.4148    0.4351  -13.1933 CT     16  DC3        -0.0069
    484 H          -8.4287    0.4457  -13.5929 H1     16  DC3         0.0754
    485 H          -6.7273    0.0519  -13.9466 H1     16  DC3         0.0754
    486 C          -7.3617   -0.4642  -11.9686 CT     16  DC3         0.1629
    487 H          -7.8552   -1.3811  -12.2912 H1     16  DC3         0.1176
    488 O          -6.2325   -0.7722  -11.7773 OS     16  DC3        -0.3691
    489 C          -5.8095   -0.5791  -10.4357 CT     16  DC3        -0.0116
    490 H          -5.5424   -1.4910   -9.9038 H2     16  DC3         0.1963
    491 N          -4.6132    0.3091  -10.4521 N*     16  DC3        -0.0339
    492 C          -4.7383    1.6539  -10.6174 CM     16  DC3        -0.0183
    493 H          -5.7166    2.0935  -10.7403 H4     16  DC3         0.2293
    494 C          -3.6447    2.4622  -10.6319 CM     16  DC3        -0.5222
    495 H          -3.7644    3.5369  -10.7663 HA     16  DC3         0.1863
    496 C          -2.3718    1.8329  -10.4643 CA     16  DC3         0.8439
    497 N          -1.2689    2.5568  -10.4683 N2     16  DC3        -0.9773
    498 H          -1.3639    3.5548  -10.5919 H      16  DC3         0.4314
    499 H          -0.3686    2.1148  -10.3509 H      16  DC3         0.4314
    500 N          -2.2452    0.4979  -10.3000 NC     16  DC3        -0.7748
    501 C          -3.3635   -0.2756  -10.2914 C      16  DC3         0.7959
    502 O          -3.3201   -1.5058  -10.1454 O      16  DC3        -0.6548
    503 C          -8.0793    0.0633  -10.7239 CT     16  DC3         0.0713
    504 H          -8.8735    0.7971  -10.5879 H1     16  DC3         0.0985
    505 C          -6.7504    0.6828   -9.9608 CT     16  DC3        -0.0854
    506 H          -6.9451    1.7267   -9.7162 HC     16  DC3         0.0718
    507 H          -6.4083    0.1591   -9.0688 HC     16  DC3         0.0718
    508 O          -8.7820   -0.9834  -10.0714 OH     16  DC3        -0.6549
    509 P           4.9797   -7.0653  -11.4473 P      17  DG3         1.1659
    510 O           4.8202   -8.5182  -11.2189 O2     17  DG3        -0.7761
    511 O           4.9730   -6.6508  -12.8688 O2     17  DG3        -0.7761
    512 O           3.7338   -6.3450  -10.7471 OS     17  DG3        -0.4954
    513 C           2.5718   -7.1278  -10.4157 CT     17  DG3        -0.0069
    514 H           2.8856   -8.0968  -10.0266 H1     17  DG3         0.0754
    515 H           1.9888   -6.6013   -9.6608 H1     17  DG3         0.0754
    516 C           1.7127   -7.3332  -11.6532 CT     17  DG3         0.1629
    517 H           0.9852   -8.0868  -11.3496 H1     17  DG3         0.1176
    518 O           1.0780   -6.3487  -11.8380 OS     17  DG3        -0.3691
    519 C           1.1481   -5.8679  -13.1719 CT     17  DG3         0.0358
    520 H           0.2048   -5.8830  -13.7156 H2     17  DG3         0.1746
    521 N           1.6300   -4.4586  -13.1289 N*     17  DG3         0.0577
    522 C           2.9120   -3.9793  -12.9510 CK     17  DG3         0.0736
    523 H           3.7323   -4.6699  -12.8178 H5     17  DG3         0.1997
    524 N           2.9996   -2.6726  -12.9615 NB     17  DG3        -0.5725
    525 C           1.6891   -2.2523  -13.1590 CB     17  DG3         0.1991
    526 C           1.1478   -0.9435  -13.2614 C      17  DG3         0.4918
    527 O           1.7307    0.1377  -13.1962 O      17  DG3        -0.5699
    528 N          -0.2377   -0.9776  -13.4599 NA     17  DG3        -0.5053
    529 H          -0.7116   -0.1015  -13.5431 H      17  DG3         0.3520
    530 C          -0.9997   -2.1246  -13.5520 CA     17  DG3         0.7432
    531 N          -2.3141   -1.9421  -13.7454 N2     17  DG3        -0.9230
    532 H          -2.8012   -1.0597  -13.8184 H      17  DG3         0.4235
    533 H          -2.8813   -2.7751  -13.8049 H      17  DG3         0.4235
    534 N          -0.4911   -3.3491  -13.4570 NC     17  DG3        -0.6636
    535 C           0.8544   -3.3340  -13.2639 CB     17  DG3         0.1814
    536 C           2.4479   -7.8384  -12.8972 CT     17  DG3         0.0713
    537 H           3.3903   -8.3694  -13.0295 H1     17  DG3         0.0985
    538 C           2.6418   -6.3729  -13.6376 CT     17  DG3        -0.0854
    539 H           3.6979   -6.2378  -13.8685 HC     17  DG3         0.0718
    540 H           2.0485   -6.1942  -14.5332 HC     17  DG3         0.0718
    541 O           1.6732   -8.8173  -13.5741 OH     17  DG3        -0.6549
    542 P          -4.9141    6.9174  -15.4927 P      18  DC3         1.1659
    543 O          -5.2555    6.6970  -14.0696 O2     18  DC3        -0.7761
    544 O          -3.7965    7.8534  -15.7537 O2     18  DC3        -0.7761
    545 O          -4.6114    5.5125  -16.1968 OS     18  DC3        -0.4954
    546 C          -5.7151    4.6589  -16.5533 CT     18  DC3        -0.0069
    547 H          -6.5282    5.2648  -16.9529 H1     18  DC3         0.0754
    548 H          -5.3855    3.9442  -17.3066 H1     18  DC3         0.0754
    549 C          -6.2022    3.9010  -15.3286 CT     18  DC3         0.1629
    550 H          -7.1411    3.4509  -15.6512 H1     18  DC3         0.1176
    551 O          -5.4713    2.9868  -15.1373 OS     18  DC3        -0.3691
    552 C          -5.0157    2.8935  -13.7957 CT     18  DC3        -0.0116
    553 H          -5.3371    1.9994  -13.2638 H2     18  DC3         0.1963
    554 N          -3.5258    2.9064  -13.8121 N*     18  DC3        -0.0339
    555 C          -2.8345    4.0666  -13.9774 CM     18  DC3        -0.0183
    556 H          -3.3660    4.9983  -14.1003 H4     18  DC3         0.2293
    557 C          -1.4746    4.0754  -13.9919 CM     18  DC3        -0.5222
    558 H          -0.9381    5.0142  -14.1263 HA     18  DC3         0.1863
    559 C          -0.8169    2.8170  -13.8243 CA     18  DC3         0.8439
    560 N           0.5007    2.7521  -13.8283 N2     18  DC3        -0.9773
    561 H           1.0120    3.6144  -13.9519 H      18  DC3         0.4314
    562 H           0.9677    1.8644  -13.7109 H      18  DC3         0.4314
    563 N          -1.5012    1.6637  -13.6600 NC     18  DC3        -0.7748
    564 C          -2.8606    1.6976  -13.6514 C      18  DC3         0.7959
    565 O          -3.5503    0.6780  -13.5054 O      18  DC3        -0.6548
    566 C          -6.4711    4.7500  -14.0839 CT     18  DC3         0.0713
    567 H          -6.6805    5.8108  -13.9479 H1     18  DC3         0.0985
    568 C          -5.0325    4.4675  -13.3208 CT     18  DC3        -0.0854
    569 H          -4.5747    5.4257  -13.0762 HC     18  DC3         0.0718
    570 H          -5.0645    3.8428  -12.4288 HC     18  DC3         0.0718
    571 O          -7.6557    4.3183  -13.4314 OH     18  DC3        -0.6549
@<TRIPOS>BOND
     1     1     2    2
     2     1     3    2
     3     1     4    1
     4     4     5    1
     5     5     6    1
     6     5     7    1
     7     5     8    1
     8     8     9    1
     9     8    10    1
    10     8    13    1
    11    10    11    1
    12    11    12    1
    13    11    15    1
    14    11    19    1
    15    13    14    1
    16    13    15    1
    17    13    18    1
    18    15    16    1
    19    15    17    1
    20    18    65    1
    21    19    20    1
    22    19    32    1
    23    20    21    1
    24    20    22    2
    25    22    23    1
    26    23    24    2
    27    23    32    1
    28    24    25    1
    29    24    28    1
    30    25    26    1
    31    25    27    1
    32    28    29    2
    33    29    30    1
    34    29    31    1
    35    31    32    2
    36    33    34    2
    37    33    35    2
    38    33    36    1
    39    36    37    1
    40    37    38    1
    41    37    39    1
    42    37    40    1
    43    40    41    1
    44    40    42    1
    45    40    59    1
    46    42    43    1
    47    43    44    1
    48    43    45    1
    49    43    61    1
    50    45    46    1
    51    45    57    1
    52    46    47    1
    53    46    48    2
    54    48    49    1
    55    48    53    1
    56    49    50    1
    57    49    51    1
    58    49    52    1
    59    53    54    2
    60    53    55    1
    61    55    56    1
    62    55    57    1
    63    57    58    2
    64    59    60    1
    65    59    61    1
    66    59    64    1
    67    61    62    1
    68    61    63    1
    69    65    66    2
    70    65    67    1
    71    65    68    1
    72    68    69    1
    73    69    70    1
    74    69    71    1
    75    69    72    1
    76    72    73    1
    77    72    74    1
    78    72    89    1
    79    74    75    1
    80    75    76    1
    81    75    77    1
    82    75    91    1
    83    77    78    1
    84    77    87    1
    85    78    79    1
    86    78    80    2
    87    80    81    1
    88    80    82    1
    89    82    83    1
    90    82    86    2
    91    83    84    1
    92    83    85    1
    93    86    87    1
    94    87    88    2
    95    89    90    1
    96    89    91    1
    97    89    94    1
    98    91    92    1
    99    91    93    1
   100    95    96    2
   101    95    97    1
   102    95    98    1
   103    95   177    1
   104    98    99    1
   105    99   100    1
   106    99   101    1
   107    99   102    1
   108   102   103    1
   109   102   104    1
   110   102   122    1
   111   104   105    1
   112   105   106    1
   113   105   107    1
   114   105   124    1
   115   107   108    1
   116   107   121    1
   117   108   109    1
   118   108   110    2
   119   110   111    1
   120   111   112    1
   121   111   121    2
   122   112   113    2
   123   112   114    1
   124   114   115    1
   125   114   116    1
   126   116   117    1
   127   116   120    2
   128   117   118    1
   129   117   119    1
   130   120   121    1
   131   122   123    1
   132   122   124    1
   133   122   127    1
   134   124   125    1
   135   124   126    1
   136   128   129    2
   137   128   130    2
   138   128   131    1
   139   131   132    1
   140   132   133    1
   141   132   134    1
   142   132   135    1
   143   135   136    1
   144   135   137    1
   145   135   154    1
   146   137   138    1
   147   138   139    1
   148   138   140    1
   149   138   156    1
   150   140   141    1
   151   140   152    1
   152   141   142    1
   153   141   143    2
   154   143   144    1
   155   143   148    1
   156   144   145    1
   157   144   146    1
   158   144   147    1
   159   148   149    2
   160   148   150    1
   161   150   151    1
   162   150   152    1
   163   152   153    2
   164   154   155    1
   165   154   156    1
   166   154   159    1
   167   156   157    1
   168   156   158    1
   169   159   192    1
   170   160   161    2
   171   160   162    2
   172   160   163    1
   173   163   164    1
   174   164   165    1
   175   164   166    1
   176   164   167    1
   177   167   168    1
   178   167   169    1
   179   167   172    1
   180   169   170    1
   181   170   171    1
   182   170   174    1
   183   170   178    1
   184   172   173    1
   185   172   174    1
   186   172   177    1
   187   174   175    1
   188   174   176    1
   189   178   179    1
   190   178   191    1
   191   179   180    1
   192   179   181    2
   193   181   182    1
   194   182   183    1
   195   182   191    2
   196   183   184    1
   197   183   187    2
   198   184   185    1
   199   184   186    1
   200   187   188    1
   201   188   189    1
   202   188   190    2
   203   190   191    1
   204   192   193    2
   205   192   194    1
   206   192   195    1
   207   195   196    1
   208   196   197    1
   209   196   198    1
   210   196   199    1
   211   199   200    1
   212   199   201    1
   213   199   216    1
   214   201   202    1
   215   202   203    1
   216   202   204    1
   217   202   218    1
   218   204   205    1
   219   204   214    1
   220   205   206    1
   221   205   207    2
   222   207   208    1
   223   207   209    1
   224   209   210    1
   225   209   213    2
   226   210   211    1
   227   210   212    1
   228   213   214    1
   229   214   215    2
   230   216   217    1
   231   216   218    1
   232   216   221    1
   233   218   219    1
   234   218   220    1
   235   222   223    2
   236   222   224    1
   237   222   225    1
   238   222   318    1
   239   225   226    1
   240   226   227    1
   241   226   228    1
   242   226   229    1
   243   229   230    1
   244   229   231    1
   245   229   249    1
   246   231   232    1
   247   232   233    1
   248   232   234    1
   249   232   251    1
   250   234   235    1
   251   234   248    1
   252   235   236    1
   253   235   237    2
   254   237   238    1
   255   238   239    1
   256   238   248    2
   257   239   240    2
   258   239   241    1
   259   241   242    1
   260   241   243    1
   261   243   244    1
   262   243   247    2
   263   244   245    1
   264   244   246    1
   265   247   248    1
   266   249   250    1
   267   249   251    1
   268   249   254    1
   269   251   252    1
   270   251   253    1
   271   255   256    2
   272   255   257    2
   273   255   258    1
   274   258   259    1
   275   259   260    1
   276   259   261    1
   277   259   262    1
   278   262   263    1
   279   262   264    1
   280   262   267    1
   281   264   265    1
   282   265   266    1
   283   265   269    1
   284   265   273    1
   285   267   268    1
   286   267   269    1
   287   267   272    1
   288   269   270    1
   289   269   271    1
   290   272   319    1
   291   273   274    1
   292   273   286    1
   293   274   275    1
   294   274   276    2
   295   276   277    1
   296   277   278    2
   297   277   286    1
   298   278   279    1
   299   278   282    1
   300   279   280    1
   301   279   281    1
   302   282   283    2
   303   283   284    1
   304   283   285    1
   305   285   286    2
   306   287   288    2
   307   287   289    2
   308   287   290    1
   309   290   291    1
   310   291   292    1
   311   291   293    1
   312   291   294    1
   313   294   295    1
   314   294   296    1
   315   294   313    1
   316   296   297    1
   317   297   298    1
   318   297   299    1
   319   297   315    1
   320   299   300    1
   321   299   311    1
   322   300   301    1
   323   300   302    2
   324   302   303    1
   325   302   307    1
   326   303   304    1
   327   303   305    1
   328   303   306    1
   329   307   308    2
   330   307   309    1
   331   309   310    1
   332   309   311    1
   333   311   312    2
   334   313   314    1
   335   313   315    1
   336   313   318    1
   337   315   316    1
   338   315   317    1
   339   319   320    2
   340   319   321    1
   341   319   322    1
   342   322   323    1
   343   323   324    1
   344   323   325    1
   345   323   326    1
   346   326   327    1
   347   326   328    1
   348   326   343    1
   349   328   329    1
   350   329   330    1
   351   329   331    1
   352   329   345    1
   353   331   332    1
   354   331   341    1
   355   332   333    1
   356   332   334    2
   357   334   335    1
   358   334   336    1
   359   336   337    1
   360   336   340    2
   361   337   338    1
   362   337   339    1
   363   340   341    1
   364   341   342    2
   365   343   344    1
   366   343   345    1
   367   343   348    1
   368   345   346    1
   369   345   347    1
   370   349   350    2
   371   349   351    1
   372   349   352    1
   373   349   431    1
   374   352   353    1
   375   353   354    1
   376   353   355    1
   377   353   356    1
   378   356   357    1
   379   356   358    1
   380   356   376    1
   381   358   359    1
   382   359   360    1
   383   359   361    1
   384   359   378    1
   385   361   362    1
   386   361   375    1
   387   362   363    1
   388   362   364    2
   389   364   365    1
   390   365   366    1
   391   365   375    2
   392   366   367    2
   393   366   368    1
   394   368   369    1
   395   368   370    1
   396   370   371    1
   397   370   374    2
   398   371   372    1
   399   371   373    1
   400   374   375    1
   401   376   377    1
   402   376   378    1
   403   376   381    1
   404   378   379    1
   405   378   380    1
   406   382   383    2
   407   382   384    2
   408   382   385    1
   409   385   386    1
   410   386   387    1
   411   386   388    1
   412   386   389    1
   413   389   390    1
   414   389   391    1
   415   389   408    1
   416   391   392    1
   417   392   393    1
   418   392   394    1
   419   392   410    1
   420   394   395    1
   421   394   406    1
   422   395   396    1
   423   395   397    2
   424   397   398    1
   425   397   402    1
   426   398   399    1
   427   398   400    1
   428   398   401    1
   429   402   403    2
   430   402   404    1
   431   404   405    1
   432   404   406    1
   433   406   407    2
   434   408   409    1
   435   408   410    1
   436   408   413    1
   437   410   411    1
   438   410   412    1
   439   413   446    1
   440   414   415    2
   441   414   416    1
   442   414   417    1
   443   414   508    1
   444   417   418    1
   445   418   419    1
   446   418   420    1
   447   418   421    1
   448   421   422    1
   449   421   423    1
   450   421   426    1
   451   423   424    1
   452   424   425    1
   453   424   428    1
   454   424   432    1
   455   426   427    1
   456   426   428    1
   457   426   431    1
   458   428   429    1
   459   428   430    1
   460   432   433    1
   461   432   445    1
   462   433   434    1
   463   433   435    2
   464   435   436    1
   465   436   437    1
   466   436   445    2
   467   437   438    1
   468   437   441    2
   469   438   439    1
   470   438   440    1
   471   441   442    1
   472   442   443    1
   473   442   444    2
   474   444   445    1
   475   446   447    2
   476   446   448    1
   477   446   449    1
   478   449   450    1
   479   450   451    1
   480   450   452    1
   481   450   453    1
   482   453   454    1
   483   453   455    1
   484   453   473    1
   485   455   456    1
   486   456   457    1
   487   456   458    1
   488   456   475    1
   489   458   459    1
   490   458   472    1
   491   459   460    1
   492   459   461    2
   493   461   462    1
   494   462   463    1
   495   462   472    2
   496   463   464    2
   497   463   465    1
   498   465   466    1
   499   465   467    1
   500   467   468    1
   501   467   471    2
   502   468   469    1
   503   468   470    1
   504   471   472    1
   505   473   474    1
   506   473   475    1
   507   473   478    1
   508   475   476    1
   509   475   477    1
   510   478   509    1
   511   479   480    2
   512   479   481    1
   513   479   482    1
   514   479   571    1
   515   482   483    1
   516   483   484    1
   517   483   485    1
   518   483   486    1
   519   486   487    1
   520   486   488    1
   521   486   503    1
   522   488   489    1
   523   489   490    1
   524   489   491    1
   525   489   505    1
   526   491   492    1
   527   491   501    1
   528   492   493    1
   529   492   494    2
   530   494   495    1
   531   494   496    1
   532   496   497    1
   533   496   500    2
   534   497   498    1
   535   497   499    1
   536   500   501    1
   537   501   502    2
   538   503   504    1
   539   503   505    1
   540   503   508    1
   541   505   506    1
   542   505   507    1
   543   509   510    2
   544   509   511    1
   545   509   512    1
   546   512   513    1
   547   513   514    1
   548   513   515    1
   549   513   516    1
   550   516   517    1
   551   516   518    1
   552   516   536    1
   553   518   519    1
   554   519   520    1
   555   519   521    1
   556   519   538    1
   557   521   522    1
   558   521   535    1
   559   522   523    1
   560   522   524    2
   561   524   525    1
   562   525   526    1
   563   525   535    2
   564   526   527    2
   565   526   528    1
   566   528   529    1
   567   528   530    1
   568   530   531    1
   569   530   534    2
   570   531   532    1
   571   531   533    1
   572   534   535    1
   573   536   537    1
   574   536   538    1
   575   536   541    1
   576   538   539    1
   577   538   540    1
   578   542   543    2
   579   542   544    2
   580   542   545    1
   581   545   546    1
   582   546   547    1
   583   546   548    1
   584   546   549    1
   585   549   550    1
   586   549   551    1
   587   549   566    1
   588   551   552    1
   589   552   553    1
   590   552   554    1
   591   552   568    1
   592   554   555    1
   593   554   564    1
   594   555   556    1
   595   555   557    2
   596   557   558    1
   597   557   559    1
   598   559   560    1
   599   559   563    2
   600   560   561    1
   601   560   562    1
   602   563   564    1
   603   564   565    2
   604   566   567    1
   605   566   568    1
   606   566   571    1
   607   568   569    1
   608   568   570    1
@<TRIPOS>SUBSTRUCTURE
    1 RES1       1
